@<TRIPOS>MOLECULE
# 0
 45 45 0 0 0
SMALL
GASTEIGER

@<TRIPOS>ATOM
      1 N           1.8323   -0.1960    0.0472 N.4     1  UNL1        0.3795
      2 C           0.7246    0.7742    0.4741 C.3     1  UNL1       -0.0879
      3 C           2.0467   -1.2148    1.1706 C.3     1  UNL1       -0.0908
      4 C           3.1462    0.5427   -0.2133 C.3     1  UNL1       -0.0908
      5 C           1.3992   -0.9009   -1.2438 C.3     1  UNL1       -0.0908
      6 C           0.4546    1.9670   -0.4481 C.3     1  UNL1       -0.0673
      7 C          -0.7934    2.7525    0.0294 C.3     1  UNL1       -0.0507
      8 C           0.8722   -2.1413    1.4685 C.3     1  UNL1       -0.0798
      9 C           3.7040    1.3582    0.9476 C.3     1  UNL1       -0.0798
     10 C           2.2987   -2.0340   -1.7266 C.3     1  UNL1       -0.0798
     11 C          -2.1386    2.2750   -0.5657 C.3     1  UNL1       -0.0277
     12 C          -2.4998    0.8294   -0.2859 C.ar    1  UNL1       -0.0474
     13 C          -2.8817    0.4179    1.0015 C.ar    1  UNL1       -0.0586
     14 C          -2.4555   -0.1337   -1.3040 C.ar    1  UNL1       -0.0586
     15 C          -3.1945   -0.9169    1.2652 C.ar    1  UNL1       -0.0615
     16 C          -2.7707   -1.4716   -1.0458 C.ar    1  UNL1       -0.0615
     17 C          -3.1359   -1.8681    0.2419 C.ar    1  UNL1       -0.0617
     18 H          -0.1745    0.1701    0.5791 H       1  UNL1        0.0064
     19 H           1.0052    1.1310    1.4678 H       1  UNL1        0.0064
     20 H           2.9298   -1.7920    0.8879 H       1  UNL1        0.0061
     21 H           2.3002   -0.6312    2.0562 H       1  UNL1        0.0061
     22 H           3.8647   -0.2213   -0.5145 H       1  UNL1        0.0061
     23 H           2.9590    1.1841   -1.0764 H       1  UNL1        0.0061
     24 H           0.3842   -1.2589   -1.0616 H       1  UNL1        0.0061
     25 H           1.3414   -0.1193   -2.0019 H       1  UNL1        0.0061
     26 H           1.3182    2.6408   -0.4546 H       1  UNL1        0.0248
     27 H           0.2921    1.6451   -1.4827 H       1  UNL1        0.0248
     28 H          -0.8435    2.7370    1.1268 H       1  UNL1        0.0268
     29 H          -0.6610    3.8039   -0.2477 H       1  UNL1        0.0268
     30 H           0.6142   -2.7886    0.6269 H       1  UNL1        0.0212
     31 H           1.1764   -2.7914    2.2955 H       1  UNL1        0.0212
     32 H          -0.0271   -1.6099    1.7883 H       1  UNL1        0.0212
     33 H           3.0153    2.1308    1.2992 H       1  UNL1        0.0212
     34 H           4.0114    0.7431    1.7972 H       1  UNL1        0.0212
     35 H           4.6014    1.8675    0.5818 H       1  UNL1        0.0212
     36 H           2.3513   -2.8676   -1.0223 H       1  UNL1        0.0212
     37 H           1.8601   -2.4216   -2.6520 H       1  UNL1        0.0212
     38 H           3.3137   -1.7084   -1.9691 H       1  UNL1        0.0212
     39 H          -2.9248    2.9319   -0.1734 H       1  UNL1        0.0313
     40 H          -2.1172    2.4373   -1.6504 H       1  UNL1        0.0313
     41 H          -2.9528    1.1526    1.8011 H       1  UNL1        0.0620
     42 H          -2.1998    0.1719   -2.3167 H       1  UNL1        0.0620
     43 H          -3.5059   -1.2111    2.2639 H       1  UNL1        0.0618
     44 H          -2.7541   -2.1967   -1.8554 H       1  UNL1        0.0618
     45 H          -3.3968   -2.9033    0.4428 H       1  UNL1        0.0618
@<TRIPOS>BOND
     1    37    10    1
     2    42    14    1
     3    25     5    1
     4    38    10    1
     5    44    16    1
     6    10     5    1
     7    10    36    1
     8    40    11    1
     9    27     6    1
    10    14    16   ar
    11    14    12   ar
    12     5    24    1
    13     5     1    1
    14    23     4    1
    15    16    17   ar
    16    11    12    1
    17    11    39    1
    18    11     7    1
    19    22     4    1
    20    26     6    1
    21     6     7    1
    22     6     2    1
    23    12    13   ar
    24    29     7    1
    25     4     1    1
    26     4     9    1
    27     7    28    1
    28     1     2    1
    29     1     3    1
    30    17    45    1
    31    17    15   ar
    32     2    18    1
    33     2    19    1
    34    35     9    1
    35    30     8    1
    36    20     3    1
    37     9    33    1
    38     9    34    1
    39    13    15   ar
    40    13    41    1
    41     3     8    1
    42     3    21    1
    43    15    43    1
    44     8    32    1
    45     8    31    1
